Version 4
SHEET 1 880 776
WIRE -512 -208 -832 -208
WIRE -384 -208 -512 -208
WIRE -112 -208 -320 -208
WIRE -512 -144 -512 -208
WIRE -832 -128 -832 -208
WIRE -112 -128 -112 -208
WIRE -512 -48 -512 -80
WIRE -832 48 -832 -64
WIRE -720 48 -832 48
WIRE -512 48 -512 32
WIRE -512 48 -656 48
WIRE -112 48 -112 -64
WIRE -112 48 -512 48
WIRE -1248 80 -1488 80
WIRE -992 80 -1248 80
WIRE -944 80 -992 80
WIRE -832 80 -832 48
WIRE -832 80 -864 80
WIRE -1488 112 -1488 80
WIRE -1248 112 -1248 80
WIRE -112 112 -112 48
WIRE -992 160 -992 80
WIRE -832 160 -832 80
WIRE -512 160 -512 128
WIRE -1488 208 -1488 192
WIRE -112 208 -112 176
WIRE -1248 224 -1248 192
WIRE -1072 224 -1248 224
WIRE -688 224 -752 224
WIRE -576 224 -624 224
WIRE -1248 256 -1248 224
WIRE -576 256 -576 224
WIRE -1072 320 -1104 320
WIRE -512 320 -512 240
WIRE -512 320 -752 320
WIRE -1248 368 -1248 336
WIRE -1072 416 -1184 416
WIRE -688 416 -752 416
WIRE -1184 448 -1184 416
WIRE -512 448 -512 400
WIRE -912 496 -912 480
WIRE -1008 528 -1008 480
WIRE -816 528 -816 480
WIRE -1184 560 -1184 528
WIRE -1008 624 -1008 592
WIRE -816 640 -816 608
WIRE -816 736 -816 704
FLAG -1488 208 0
FLAG -1104 320 0
FLAG -912 496 0
FLAG -688 416 0
FLAG -1184 560 0
FLAG -1248 368 0
FLAG -112 208 0
FLAG -112 -208 out
FLAG -512 128 out
FLAG -576 256 0
FLAG -512 448 0
FLAG -1008 624 0
FLAG -816 736 0
SYMBOL VOLTAGE -1488 96 R0
WINDOW 0 27 22 Left 2
SYMATTR InstName V1
SYMATTR Value 12
SYMBOL LT8365 -912 320 R0
SYMATTR InstName U2
SYMBOL res -1264 96 R0
SYMATTR InstName R1
SYMATTR Value 1Meg
SYMBOL res -1232 352 R180
WINDOW 0 36 76 Left 2
WINDOW 3 36 40 Left 2
SYMATTR InstName R2
SYMATTR Value 232K
SYMBOL res -1200 432 R0
SYMATTR InstName R3
SYMATTR Value 107K
SYMBOL diode -720 64 R270
WINDOW 0 32 32 VTop 2
WINDOW 3 0 32 VBottom 2
SYMATTR InstName D1
SYMBOL diode -496 -80 R180
WINDOW 0 24 64 Left 2
WINDOW 3 24 0 Left 2
SYMATTR InstName D2
SYMBOL diode -384 -192 R270
WINDOW 0 32 32 VTop 2
WINDOW 3 0 32 VBottom 2
SYMATTR InstName D3
SYMBOL cap -848 -128 R0
SYMATTR InstName C1
SYMATTR Value 0.22µ
SYMBOL cap -128 -128 R0
SYMATTR InstName C2
SYMATTR Value 0.22µ
SYMBOL cap -128 112 R0
SYMATTR InstName C3
SYMATTR Value 0.22µ
SYMBOL cap -624 208 R90
WINDOW 0 0 32 VBottom 2
WINDOW 3 32 32 VTop 2
SYMATTR InstName C4
SYMATTR Value 1µ
SYMBOL res -528 304 R0
SYMATTR InstName R4
SYMATTR Value 9.5K
SYMBOL res -528 144 R0
SYMATTR InstName R5
SYMATTR Value 1Meg
SYMBOL ind -960 96 R270
WINDOW 0 32 56 VTop 2
WINDOW 3 5 56 VBottom 2
SYMATTR InstName L1
SYMATTR Value 10µ
SYMBOL res -528 -64 R0
SYMATTR InstName R6
SYMATTR Value 20
SYMBOL cap -1024 528 R0
SYMATTR InstName C5
SYMATTR Value 0.22µ
SYMBOL res -832 512 R0
SYMATTR InstName R7
SYMATTR Value 84.5K
SYMBOL cap -832 640 R0
SYMATTR InstName C6
SYMATTR Value 1n
TEXT -1522 760 Left 2 !.tran 10m
